WS_Concat='"D:\CAA\TRANagaTest2WS\." "C:\Program Files\Dassault Systemes\B19\."'
RTViewDataListPath='D:\CAA\TRANagaTest2WS\.\TRACommandAddinFW\various\win_b64\TRACommandAddinMod.m\module.data'
MKMK_DEVSTAGE=''
BUILT_OBJECT_TYPE='SHARED LIBRARY'
MKMK_BSCMAKE=''
M_CATAfrUUID='mkArchive "C:\Program Files\Dassault Systemes\B19\.\ApplicationFrame\CATAfrUUID.m" CATAfrUUID CATAfrUUID - -'
WSEKEY='M_TRACommandAddinMod'
MOD_Included='M_TRACommandAddinMod'
M_CATWkAssyInterface='mkSharedLibrary "C:\Program Files\Dassault Systemes\B19\.\CATAssemblyInterfaces\CATWkAssyInterface.m" CATWkAssyInterface CATWkAssyInterface - -'
MODNAME='TRACommandAddinMod'
CONTNAME='TRACommandAddinMod'
FWmkHLpath='D:\CAA\TRANagaTest2WS\.\TRACommandAddinFW\IdentityCard\Objects\win_b64\.mkHLpath.mk'
M_JS0GROUP='mkSharedLibrary "C:\Program Files\Dassault Systemes\B19\.\System\JS0GROUP.m" JS0GROUP JS0GROUP - -'
WIZARD_LINK_MODULES='JS0GROUP JS0FM JS0GROUP CATWkAssyInterface CATAssemblyInterfacesUUID CATGitInterfaces ApplicationFrame CATAfrUUID'
MKMK_WARNING=''
F_TRACommandAddinFW='mkFramework "D:\CAA\TRANagaTest2WS\.\TRACommandAddinFW" TRACommandAddinFW TRACommandAddinFW - -'
M_JS0FM='mkSharedLibrary "C:\Program Files\Dassault Systemes\B19\.\System\JS0FM.m" JS0FM JS0FM - -'
FWDNAME='TRACommandAddinFW'
MKMK_ZIPJAVASOURCE=''
GPrivate='D:\CAA\TRANagaTest2WS\.\TRACommandAddinFW\PrivateGenerated\win_b64'
IPublic='D:\CAA\TRANagaTest2WS\.\TRACommandAddinFW\PublicInterfaces'
IPrivate='D:\CAA\TRANagaTest2WS\.\TRACommandAddinFW\PrivateInterfaces'
GPublic='D:\CAA\TRANagaTest2WS\.\TRACommandAddinFW\PublicGenerated\win_b64'
MKMK_DEBUGEDITANDCONTINUE=''
M_TRACommandAddinMod='mkSharedLibrary "D:\CAA\TRANagaTest2WS\.\TRACommandAddinFW\TRACommandAddinMod.m" TRACommandAddinMod TRACommandAddinMod - -'
GProtected='D:\CAA\TRANagaTest2WS\.\TRACommandAddinFW\ProtectedGenerated\win_b64'
WSROOT='D:\CAA\TRANagaTest2WS\.'
IProtected='D:\CAA\TRANagaTest2WS\.\TRACommandAddinFW\ProtectedInterfaces'
MKMK_DATA_VERSION='1.0.0'
STEPS_TO_CLEAN=''
NAME='D:\CAA\TRANagaTest2WS\.\TRACommandAddinFW\TRACommandAddinMod.m\Objects\win_b64\.mkdata.mk'
STEPS_TO_BUILD='grammar1st grammar2nd sourcecheck caacheck typelibgrammar compilation sourceruler globalresource cpponly link1st link2nd'
FWNAME='TRACommandAddinFW'
M_CATApplicationFrame='mkSharedLibrary "C:\Program Files\Dassault Systemes\B19\.\ApplicationFrame\CATApplicationFrame.m" CATApplicationFrame CATApplicationFrame - -'
MODPATH='D:\CAA\TRANagaTest2WS\.\TRACommandAddinFW\TRACommandAddinMod.m'
MOD_Depend='M_CATAssemblyInterfacesUUID M_CATAfrUUID'
FW_AllPreq='AdvancedMathematics,20DD2151;AdvancedTopologicalOpe,20DD2151;ApplicationFrame,21DD2151;AutomationInterfaces,20DD2151;BasicTopologicalOpe,20DD2151;BatchInfrastructure,20DD2151;CAT3DXmlInterfaces,20DD2151;CATAssemblyInterfaces,21DD2151;CATCDS,20DD2151;CATCDSUtilities,20DD2151;CATCloudBasicResources,20DD2151;CATDataCompatibilityInfra,20DD2151;CATElfiniOpenSoftware,20DD2151;CATFuzzyOperators,20DD2151;CATGraphicProperties,20DD2151;CATIAApplicationFrame,20DD2151;CATIADataBasics,20DD2151;CATIADataMacFortran,20DD2151;CATImmWtpInterfaces,20DD2151;CATJavaBridge,20DD2151;CATPDMBaseInterfaces,20DD2151;CATPLMDictionary,20DD2151;CATShmInterfaces,20DD2151;CATSmarTeamIntegInterfaces,20DD2151;CATSubdivisionApproximation,20DD2151;CATSubdivisionMeshOperators,20DD2151;CATSubdivisionObjects,20DD2151;CATTechResultInterfaces,20DD2151;CATTechnologicalPackageUIItf,20DD2151;CATV4System,20DD2151;CATVirtualVaultSystem,20DD2151;CATWBx,20DD2151;CATXDocLinkInterfaces,20DD2151;CGMV5Interoperability,20DD2151;Communications,20DD2151;ComponentsCatalogsInterfaces,20DD2151;ConstraintModelerInterfaces,20DD2151;ConstraintSolver,20DD2151;CurveBasedGeoOperators,20DD2151;CurveBasedInfrastructure,20DD2151;CurveBasedMathematics,20DD2151;CurveBasedTopoOperators,20DD2151;DCM3D,20DD2151;Dialog,21DD2151;DialogEngine,21DD2151;DraftingInterfaces,20DD2151;FileMenu,20DD2151;FreeFormOperators,20DD2151;GSMInterfaces,20DD2151;GenericNaming,20DC2151;GeometricObjects,20DD2151;GeometricObjectsCGM,20DD2151;GeometricOperators,20DD2151;GeometryVisualization,20DD2151;Graph,20DD2151;HLRBase,20DD2151;InfInterfaces,20DD2151;InteractiveInterfaces,20DD2151;KnowledgeInterfaces,21DD2151;KnowledgeModeler,20DD2151;LiteralFeatures,20DD2151;Mainwin,20DD2151;Mathematics,21DD2151;MeasureGeometryInterfaces,20DD2151;MecModInterfaces,21DD2151;MechanicalCommands,20DD2151;MechanicalModeler,21DD2151;Multimedia,20DD2151;NewTopologicalObjects,20DC2151;ObjectModelerBase,21DC2151;ObjectModelerBaseUI,20DD2151;ObjectModelerCATIA,20DD2151;ObjectModelerCollection,20CC2151;ObjectModelerInterfaces,20DD2151;ObjectModelerNavigator,21DD2151;ObjectModelerSystem,20DD2151;ObjectSpecsModeler,21DD2151;PartInterfaces,20DD2151;PolygonalTools,20DD2151;PolyhedralInterfaces,20DD2151;PolyhedralMathematics,20DD2151;PolyhedralObjects,20DD2151;PolyhedralOperators,20DD2151;PolyhedralVisuOperators,20DD2151;PolyhedralVisualization,20DD2151;Print,20DD2151;PrintBase,20DD2151;ProductStructure,21DD2151;ProductStructureInterfaces,20DD2151;SketcherInterfaces,20DD2151;SpecialAPI,20DD2151;SurfacicGeoOperators,20DD2151;SurfacicInfrastructure,20DD2151;SurfacicMathematics,20DD2151;SurfacicTopoOperators,20DD2151;System,21DD2151;Tessellation,20DD2151;TopologicalOperators,20DD2151;VBA,20DD2151;Visualization,21DD2151;VisualizationBase,20DD2151;XMLParser,20DD2151;XlatorCGM,20DD2151;'
FW_INCPATH='"D:\CAA\TRANagaTest2WS\.\TRACommandAddinFW\PrivateInterfaces" "D:\CAA\TRANagaTest2WS\.\TRACommandAddinFW\PrivateGenerated\win_b64" "D:\CAA\TRANagaTest2WS\.\TRACommandAddinFW\ProtectedInterfaces" "D:\CAA\TRANagaTest2WS\.\TRACommandAddinFW\ProtectedGenerated\win_b64" "D:\CAA\TRANagaTest2WS\.\TRACommandAddinFW\PublicInterfaces" "D:\CAA\TRANagaTest2WS\.\TRACommandAddinFW\PublicGenerated\win_b64"'
WSENAME_msg='TRACommandAddinFW\TRACommandAddinMod.m'
MOD_Container='TRACommandAddinMod.m'
MOD_LinkWith='M_CATAssemblyInterfacesUUID M_CATAfrUUID M_JS0GROUP M_JS0FM M_CATWkAssyInterface M_CATApplicationFrame'
REAL_LINK_WITH='CATAssemblyInterfacesUUID CATAfrUUID JS0GROUP JS0FM CATWkAssyInterface CATApplicationFrame'
MKMK_DEBUG=''
WSPATH='D:\CAA\TRANagaTest2WS\.'
M_CATAssemblyInterfacesUUID='mkArchive "C:\Program Files\Dassault Systemes\B19\.\CATAssemblyInterfaces\CATAssemblyInterfacesUUID.m" CATAssemblyInterfacesUUID CATAssemblyInterfacesUUID - -'
GLocal='D:\CAA\TRANagaTest2WS\.\TRACommandAddinFW\TRACommandAddinMod.m\LocalGenerated\win_b64'
ILocal='D:\CAA\TRANagaTest2WS\.\TRACommandAddinFW\TRACommandAddinMod.m\LocalInterfaces'
FWCOMPANYNAME='""'
MOD_INCPATH='"D:\CAA\TRANagaTest2WS\.\TRACommandAddinFW\TRACommandAddinMod.m\src" "D:\CAA\TRANagaTest2WS\.\TRACommandAddinFW\TRACommandAddinMod.m\LocalInterfaces" "D:\CAA\TRANagaTest2WS\.\TRACommandAddinFW\TRACommandAddinMod.m\LocalGenerated\win_b64"'
FWPATH='D:\CAA\TRANagaTest2WS\.\TRACommandAddinFW'
FWIDENT='tracommandaddinfw'
LINK_WITH='JS0GROUP JS0FM JS0GROUP CATWkAssyInterface CATAssemblyInterfacesUUID CATGitInterfaces ApplicationFrame CATAfrUUID'
